network/glm/Elermorevale/subs/HP00012447GTX00000001.glm



object transformer {
      name HP00012447GTX00000001_TX;
      phases ABC;
      from HP00012447GTX00000001;
      to HP00012447GTX00000001_LV;
      configuration HP00012447GTX00000001_config;
      };



object meter {
      name HP00012447GTX00000001_LV;
      phases ABCN;
      nominal_voltage  240;
      };


object switch {
      name HP00012447GTX00000001_LV-HP00012447LDI00012447_T1;
      phases ABCN;
      from HP00012447GTX00000001_LV;
      to HP00012447LDI00012447_T1;
      status CLOSED;
      };



object meter {
      name HP00012447LDI00012447_T1;
      phases ABCN;
      nominal_voltage  240;
      };


object fuse {
      name HP00012447LDI00012447;
      phases ABCN;
      from HP00012447LDI00012447_T1;
      to HP00012447LDI00012447_T2;
      phase_A_status GOOD;
      phase_B_status GOOD;
      phase_C_status GOOD;
      current_limit  10000 A;
      mean_replacement_time 3600;
      };



object meter {
      name HP00012447LDI00012447_T2;
      phases ABCN;
      nominal_voltage  240;
      };


object switch {
      name HP00012447LDI00012447_T2-FDR_12447_LV_NODE_019;
      phases ABCN;
      from HP00012447LDI00012447_T2;
      to FDR_12447_LV_NODE_019;
      status CLOSED;
      };



object meter {
      name FDR_12447_LV_NODE_019;
      phases ABCN;
      nominal_voltage  240;
      };


object overhead_line {
      name FDR_12447_LV_NODE_019-FDR_12447_LV_NODE_020_1;
      phases ABCN;
      from FDR_12447_LV_NODE_019;
      to FDR_12447_LV_NODE_020_1;
      length 38.8 m;
      configuration conf_OHLine_51101;
      };



object meter {
      name FDR_12447_LV_NODE_020_1;
      phases ABCN;
      nominal_voltage  240;
      };


object overhead_line {
      name FDR_12447_LV_NODE_020_1-FDR_12447_LV_NODE_021_3;
      phases ABCN;
      from FDR_12447_LV_NODE_020_1;
      to FDR_12447_LV_NODE_021_3;
      length 47.6 m;
      configuration conf_OHLine_51101;
      };



object meter {
      name FDR_12447_LV_NODE_021_3;
      phases ABCN;
      nominal_voltage  240;
      };


object overhead_line {
      name FDR_12447_LV_NODE_021_3-FDR_12447_LV_SP_5213184;
      phases BN;
      from FDR_12447_LV_NODE_021_3;
      to FDR_12447_LV_SP_5213184;
      length 24.1 m;
      configuration conf_OHLine_600;
      };



object meter {
      name FDR_12447_LV_SP_5213184;
      phases BN;
      nominal_voltage  240;
      };


object load {
      name LOAD_8186587;
      parent FDR_12447_LV_SP_5213184;
      phases BN;
      nominal_voltage  240;
      base_power_B Load_12447.result;
      power_fraction_B 1;
      current_fraction_B 0;
      impedance_fraction_B 0;
      power_pf_B L_pf_Head80784.output;
      current_pf_B 1;
      impedance_pf_B 1;
      
      // Customer Trial Appended Data //
      ausgrid_sa1 11103123334;
      ausgrid_annual_consumption 4610.9222222;
      ausgrid_annual_consumption_with_control_load 4610.9222222;
      ausgrid_simple_cell 25;
      ausgrid_elec_band_residential 1;
      ausgrid_elec_band_business 0;
      ausgrid_unit 0;
      ausgrid_income_band 1;
      ausgrid_gas_band 1;
      ausgrid_climate_zone 5;
      ausgrid_controlled_load 0;
      ausgrid_generation 0;
      };


object overhead_line {
      name FDR_12447_LV_NODE_021_3-FDR_12447_LV_NODE_022_6;
      phases ABCN;
      from FDR_12447_LV_NODE_021_3;
      to FDR_12447_LV_NODE_022_6;
      length 49.9 m;
      configuration conf_OHLine_51101;
      };



object meter {
      name FDR_12447_LV_NODE_022_6;
      phases ABCN;
      nominal_voltage  240;
      };


object overhead_line {
      name FDR_12447_LV_NODE_022_6-FDR_12447_LV_SP_5334176;
      phases CN;
      from FDR_12447_LV_NODE_022_6;
      to FDR_12447_LV_SP_5334176;
      length 16.8 m;
      configuration conf_OHLine_600;
      };



object meter {
      name FDR_12447_LV_SP_5334176;
      phases CN;
      nominal_voltage  240;
      };


object load {
      name LOAD_8186577;
      parent FDR_12447_LV_SP_5334176;
      phases CN;
      nominal_voltage  240;
      base_power_C Load_12447.result;
      power_fraction_C 1;
      current_fraction_C 0;
      impedance_fraction_C 0;
      power_pf_C L_pf_Head80784.output;
      current_pf_C 1;
      impedance_pf_C 1;
      
      // Customer Trial Appended Data //
      ausgrid_sa1 11103123334;
      ausgrid_annual_consumption 4826.322;
      ausgrid_annual_consumption_with_control_load 6580.8122222;
      ausgrid_simple_cell 25;
      ausgrid_elec_band_residential 1;
      ausgrid_elec_band_business 0;
      ausgrid_unit 0;
      ausgrid_income_band 1;
      ausgrid_gas_band 1;
      ausgrid_climate_zone 5;
      ausgrid_controlled_load 1;
      ausgrid_generation 0;
      };


object overhead_line {
      name FDR_12447_LV_NODE_022_6-FDR_12447_LV_NODE_023_1;
      phases ABCN;
      from FDR_12447_LV_NODE_022_6;
      to FDR_12447_LV_NODE_023_1;
      length 33.9 m;
      configuration conf_OHLine_51101;
      };



object meter {
      name FDR_12447_LV_NODE_023_1;
      phases ABCN;
      nominal_voltage  240;
      };


object overhead_line {
      name FDR_12447_LV_NODE_023_1-FDR_12447_LV_SP_5334178;
      phases AN;
      from FDR_12447_LV_NODE_023_1;
      to FDR_12447_LV_SP_5334178;
      length 39.5 m;
      configuration conf_OHLine_600;
      };



object meter {
      name FDR_12447_LV_SP_5334178;
      phases AN;
      nominal_voltage  240;
      };


object load {
      name LOAD_8186507;
      parent FDR_12447_LV_SP_5334178;
      phases AN;
      nominal_voltage  240;
      base_power_A Load_12447.result;
      power_fraction_A 1;
      current_fraction_A 0;
      impedance_fraction_A 0;
      power_pf_A L_pf_Head80784.output;
      current_pf_A 1;
      impedance_pf_A 1;
      
      // Customer Trial Appended Data //
      ausgrid_sa1 11103123335;
      ausgrid_annual_consumption 2812.9;
      ausgrid_annual_consumption_with_control_load 3981.3333333;
      ausgrid_simple_cell 25;
      ausgrid_elec_band_residential 1;
      ausgrid_elec_band_business 0;
      ausgrid_unit 0;
      ausgrid_income_band 1;
      ausgrid_gas_band 1;
      ausgrid_climate_zone 5;
      ausgrid_controlled_load 1;
      ausgrid_generation 0;
      };


object overhead_line {
      name FDR_12447_LV_NODE_023_1-FDR_12447_LV_SP_11559767;
      phases BN;
      from FDR_12447_LV_NODE_023_1;
      to FDR_12447_LV_SP_11559767;
      length 33.8 m;
      configuration conf_OHLine_57018;
      };



object meter {
      name FDR_12447_LV_SP_11559767;
      phases BN;
      nominal_voltage  240;
      };


object load {
      name LOAD_8186517;
      parent FDR_12447_LV_SP_11559767;
      phases BN;
      nominal_voltage  240;
      base_power_B Load_12447.result;
      power_fraction_B 1;
      current_fraction_B 0;
      impedance_fraction_B 0;
      power_pf_B L_pf_Head80784.output;
      current_pf_B 1;
      impedance_pf_B 1;
      
      // Customer Trial Appended Data //
      ausgrid_sa1 11103123335;
      ausgrid_annual_consumption 2609.6612245;
      ausgrid_annual_consumption_with_control_load 2609.6612245;
      ausgrid_simple_cell 25;
      ausgrid_elec_band_residential 1;
      ausgrid_elec_band_business 0;
      ausgrid_unit 0;
      ausgrid_income_band 1;
      ausgrid_gas_band 1;
      ausgrid_climate_zone 5;
      ausgrid_controlled_load 0;
      ausgrid_generation 0;
      };


object overhead_line {
      name FDR_12447_LV_NODE_023_1-FDR_12447_LV_NODE_024;
      phases ABCN;
      from FDR_12447_LV_NODE_023_1;
      to FDR_12447_LV_NODE_024;
      length 32.4 m;
      configuration conf_OHLine_51101;
      };



object meter {
      name FDR_12447_LV_NODE_024;
      phases ABCN;
      nominal_voltage  240;
      };


object overhead_line {
      name FDR_12447_LV_NODE_024-FDR_12447_LV_NODE_025_4;
      phases ABCN;
      from FDR_12447_LV_NODE_024;
      to FDR_12447_LV_NODE_025_4;
      length 71.1 m;
      configuration conf_OHLine_51027;
      };



object meter {
      name FDR_12447_LV_NODE_025_4;
      phases ABCN;
      nominal_voltage  240;
      };


object overhead_line {
      name FDR_12447_LV_NODE_025_4-FDR_12447_LV_SP_5213189;
      phases CN;
      from FDR_12447_LV_NODE_025_4;
      to FDR_12447_LV_SP_5213189;
      length 27.9 m;
      configuration conf_OHLine_600;
      };



object meter {
      name FDR_12447_LV_SP_5213189;
      phases CN;
      nominal_voltage  240;
      };


object load {
      name LOAD_8186443;
      parent FDR_12447_LV_SP_5213189;
      phases CN;
      nominal_voltage  240;
      base_power_C Load_12447.result;
      power_fraction_C 1;
      current_fraction_C 0;
      impedance_fraction_C 0;
      power_pf_C L_pf_Head80784.output;
      current_pf_C 1;
      impedance_pf_C 1;
      
      // Customer Trial Appended Data //
      ausgrid_sa1 11103123335;
      ausgrid_annual_consumption 9911.3872146;
      ausgrid_annual_consumption_with_control_load 9911.3872146;
      ausgrid_simple_cell 27;
      ausgrid_elec_band_residential 3;
      ausgrid_elec_band_business 0;
      ausgrid_unit 0;
      ausgrid_income_band 1;
      ausgrid_gas_band 1;
      ausgrid_climate_zone 5;
      ausgrid_controlled_load 0;
      ausgrid_generation 0;
      };


object overhead_line {
      name FDR_12447_LV_NODE_025_4-FDR_12447_LV_SP_5334171;
      phases CN;
      from FDR_12447_LV_NODE_025_4;
      to FDR_12447_LV_SP_5334171;
      length 26.6 m;
      configuration conf_OHLine_600;
      };



object meter {
      name FDR_12447_LV_SP_5334171;
      phases CN;
      nominal_voltage  240;
      };


object load {
      name LOAD_8186449;
      parent FDR_12447_LV_SP_5334171;
      phases CN;
      nominal_voltage  240;
      base_power_C Load_12447.result;
      power_fraction_C 1;
      current_fraction_C 0;
      impedance_fraction_C 0;
      power_pf_C L_pf_Head80784.output;
      current_pf_C 1;
      impedance_pf_C 1;
      
      // Customer Trial Appended Data //
      ausgrid_sa1 11103123335;
      ausgrid_annual_consumption 3304.6;
      ausgrid_annual_consumption_with_control_load 3304.6;
      ausgrid_simple_cell 25;
      ausgrid_elec_band_residential 1;
      ausgrid_elec_band_business 0;
      ausgrid_unit 0;
      ausgrid_income_band 1;
      ausgrid_gas_band 1;
      ausgrid_climate_zone 5;
      ausgrid_controlled_load 0;
      ausgrid_generation 0;
      };


object overhead_line {
      name FDR_12447_LV_NODE_025_4-FDR_12447_LV_SP_5213190;
      phases AN;
      from FDR_12447_LV_NODE_025_4;
      to FDR_12447_LV_SP_5213190;
      length 29.3 m;
      configuration conf_OHLine_600;
      };



object meter {
      name FDR_12447_LV_SP_5213190;
      phases AN;
      nominal_voltage  240;
      };


object load {
      name LOAD_8186429;
      parent FDR_12447_LV_SP_5213190;
      phases AN;
      nominal_voltage  240;
      base_power_A Load_12447.result;
      power_fraction_A 1;
      current_fraction_A 0;
      impedance_fraction_A 0;
      power_pf_A L_pf_Head80784.output;
      current_pf_A 1;
      impedance_pf_A 1;
      
      // Customer Trial Appended Data //
      ausgrid_sa1 11103123335;
      ausgrid_annual_consumption 3567.7777778;
      ausgrid_annual_consumption_with_control_load 3567.7777778;
      ausgrid_simple_cell 25;
      ausgrid_elec_band_residential 1;
      ausgrid_elec_band_business 0;
      ausgrid_unit 0;
      ausgrid_income_band 1;
      ausgrid_gas_band 1;
      ausgrid_climate_zone 5;
      ausgrid_controlled_load 0;
      ausgrid_generation 0;
      };


object overhead_line {
      name FDR_12447_LV_NODE_025_4-FDR_12447_LV_SP_5236554;
      phases BN;
      from FDR_12447_LV_NODE_025_4;
      to FDR_12447_LV_SP_5236554;
      length 15.6 m;
      configuration conf_OHLine_600;
      };



object meter {
      name FDR_12447_LV_SP_5236554;
      phases BN;
      nominal_voltage  240;
      };


object load {
      name LOAD_8186437;
      parent FDR_12447_LV_SP_5236554;
      phases BN;
      nominal_voltage  240;
      base_power_B Load_12447.result;
      power_fraction_B 1;
      current_fraction_B 0;
      impedance_fraction_B 0;
      power_pf_B L_pf_Head80784.output;
      current_pf_B 1;
      impedance_pf_B 1;
      
      // Customer Trial Appended Data //
      ausgrid_sa1 11103123335;
      ausgrid_annual_consumption 8521.9602174;
      ausgrid_annual_consumption_with_control_load 8521.9602174;
      ausgrid_simple_cell 26;
      ausgrid_elec_band_residential 2;
      ausgrid_elec_band_business 0;
      ausgrid_unit 0;
      ausgrid_income_band 1;
      ausgrid_gas_band 1;
      ausgrid_climate_zone 5;
      ausgrid_controlled_load 0;
      ausgrid_generation 1;
      };


object inverter {
      name DG_8186437;
      parent FDR_12447_LV_SP_5236554;
      phases BN;
      generator_mode CONSTANT_PF;
      generator_status ONLINE;
      inverter_type PWM;
      power_factor 0.9;
      rated_power 10000;
      inverter_efficiency 0.95;
      };


object solar {
      name SOLAR_8186437;
      parent DG_8186437;
      phases BN;
      generator_status ONLINE;
      weather ElermoreClimate;
      panel_type SINGLE_CRYSTAL_SILICON;
      generator_mode CONSTANT_PF;
      area 9.028 m^2;
      tilt_angle 29;
      efficiency 0.14;
      orientation_azimuth 10;
      orientation  FIXED_AXIS;
      SOLAR_TILT_MODEL  SOLPOS;
      SOLAR_POWER_MODEL  DEFAULT;
      };


object overhead_line {
      name FDR_12447_LV_NODE_025_4-FDR_12447_LV_NODE_026_1;
      phases ABCN;
      from FDR_12447_LV_NODE_025_4;
      to FDR_12447_LV_NODE_026_1;
      length 42.2 m;
      configuration conf_OHLine_51027;
      };



object meter {
      name FDR_12447_LV_NODE_026_1;
      phases ABCN;
      nominal_voltage  240;
      };


object overhead_line {
      name FDR_12447_LV_NODE_026_1-FDR_12447_LV_SP_5336121;
      phases BN;
      from FDR_12447_LV_NODE_026_1;
      to FDR_12447_LV_SP_5336121;
      length 26.6 m;
      configuration conf_OHLine_600;
      };



object meter {
      name FDR_12447_LV_SP_5336121;
      phases BN;
      nominal_voltage  240;
      };


object load {
      name LOAD_8186633;
      parent FDR_12447_LV_SP_5336121;
      phases BN;
      nominal_voltage  240;
      base_power_B Load_12447.result;
      power_fraction_B 1;
      current_fraction_B 0;
      impedance_fraction_B 0;
      power_pf_B L_pf_Head80784.output;
      current_pf_B 1;
      impedance_pf_B 1;
      
      // Customer Trial Appended Data //
      ausgrid_sa1 11103123335;
      ausgrid_annual_consumption 12652.227481;
      ausgrid_annual_consumption_with_control_load 14349.802991;
      ausgrid_simple_cell 27;
      ausgrid_elec_band_residential 3;
      ausgrid_elec_band_business 0;
      ausgrid_unit 0;
      ausgrid_income_band 1;
      ausgrid_gas_band 1;
      ausgrid_climate_zone 5;
      ausgrid_controlled_load 1;
      ausgrid_generation 0;
      };


object overhead_line {
      name FDR_12447_LV_NODE_026_1-FDR_12447_LV_SP_9030291;
      phases AN;
      from FDR_12447_LV_NODE_026_1;
      to FDR_12447_LV_SP_9030291;
      length 19.7 m;
      configuration conf_OHLine_2312;
      };



object meter {
      name FDR_12447_LV_SP_9030291;
      phases AN;
      nominal_voltage  240;
      };


object load {
      name LOAD_8186425;
      parent FDR_12447_LV_SP_9030291;
      phases AN;
      nominal_voltage  240;
      base_power_A Load_12447.result;
      power_fraction_A 1;
      current_fraction_A 0;
      impedance_fraction_A 0;
      power_pf_A L_pf_Head80784.output;
      current_pf_A 1;
      impedance_pf_A 1;
      
      // Customer Trial Appended Data //
      ausgrid_sa1 11103123335;
      ausgrid_annual_consumption 5264.4206122;
      ausgrid_annual_consumption_with_control_load 5264.4206122;
      ausgrid_simple_cell 25;
      ausgrid_elec_band_residential 1;
      ausgrid_elec_band_business 0;
      ausgrid_unit 0;
      ausgrid_income_band 1;
      ausgrid_gas_band 1;
      ausgrid_climate_zone 5;
      ausgrid_controlled_load 0;
      ausgrid_generation 1;
      };


object overhead_line {
      name FDR_12447_LV_NODE_025_4-FDR_12447_LV_SP_5213188;
      phases AN;
      from FDR_12447_LV_NODE_025_4;
      to FDR_12447_LV_SP_5213188;
      length 37.1 m;
      configuration conf_OHLine_600;
      };



object meter {
      name FDR_12447_LV_SP_5213188;
      phases AN;
      nominal_voltage  240;
      };


object load {
      name LOAD_8186453;
      parent FDR_12447_LV_SP_5213188;
      phases AN;
      nominal_voltage  240;
      base_power_A Load_12447.result;
      power_fraction_A 1;
      current_fraction_A 0;
      impedance_fraction_A 0;
      power_pf_A L_pf_Head80784.output;
      current_pf_A 1;
      impedance_pf_A 1;
      
      // Customer Trial Appended Data //
      ausgrid_sa1 11103123335;
      ausgrid_annual_consumption 3271.844898;
      ausgrid_annual_consumption_with_control_load 3271.844898;
      ausgrid_simple_cell 25;
      ausgrid_elec_band_residential 1;
      ausgrid_elec_band_business 0;
      ausgrid_unit 0;
      ausgrid_income_band 1;
      ausgrid_gas_band 1;
      ausgrid_climate_zone 5;
      ausgrid_controlled_load 0;
      ausgrid_generation 1;
      };


object inverter {
      name DG_8186453;
      parent FDR_12447_LV_SP_5213188;
      phases AN;
      generator_mode CONSTANT_PF;
      generator_status ONLINE;
      inverter_type PWM;
      power_factor 0.9;
      rated_power 10000;
      inverter_efficiency 0.95;
      };


object solar {
      name SOLAR_8186453;
      parent DG_8186453;
      phases AN;
      generator_status ONLINE;
      weather ElermoreClimate;
      panel_type SINGLE_CRYSTAL_SILICON;
      generator_mode CONSTANT_PF;
      area 8.113 m^2;
      tilt_angle 18;
      efficiency 0.14;
      orientation_azimuth 280;
      orientation  FIXED_AXIS;
      SOLAR_TILT_MODEL  SOLPOS;
      SOLAR_POWER_MODEL  DEFAULT;
      };


object overhead_line {
      name FDR_12447_LV_NODE_025_4-FDR_12447_LV_SP_5213180;
      phases AN;
      from FDR_12447_LV_NODE_025_4;
      to FDR_12447_LV_SP_5213180;
      length 15.5 m;
      configuration conf_OHLine_600;
      };



object meter {
      name FDR_12447_LV_SP_5213180;
      phases AN;
      nominal_voltage  240;
      };


object load {
      name LOAD_8186427;
      parent FDR_12447_LV_SP_5213180;
      phases AN;
      nominal_voltage  240;
      base_power_A Load_12447.result;
      power_fraction_A 1;
      current_fraction_A 0;
      impedance_fraction_A 0;
      power_pf_A L_pf_Head80784.output;
      current_pf_A 1;
      impedance_pf_A 1;
      
      // Customer Trial Appended Data //
      ausgrid_sa1 11103123335;
      ausgrid_annual_consumption 1839.0433333;
      ausgrid_annual_consumption_with_control_load 3208.3577778;
      ausgrid_simple_cell 25;
      ausgrid_elec_band_residential 1;
      ausgrid_elec_band_business 0;
      ausgrid_unit 0;
      ausgrid_income_band 1;
      ausgrid_gas_band 1;
      ausgrid_climate_zone 5;
      ausgrid_controlled_load 1;
      ausgrid_generation 0;
      };


object overhead_line {
      name FDR_12447_LV_NODE_024-FDR_12447_LV_SP_5213181;
      phases BN;
      from FDR_12447_LV_NODE_024;
      to FDR_12447_LV_SP_5213181;
      length 36.4 m;
      configuration conf_OHLine_2312;
      };



object meter {
      name FDR_12447_LV_SP_5213181;
      phases BN;
      nominal_voltage  240;
      };


object load {
      name LOAD_8186459;
      parent FDR_12447_LV_SP_5213181;
      phases BN;
      nominal_voltage  240;
      base_power_B Load_12447.result;
      power_fraction_B 1;
      current_fraction_B 0;
      impedance_fraction_B 0;
      power_pf_B L_pf_Head80784.output;
      current_pf_B 1;
      impedance_pf_B 1;
      
      // Customer Trial Appended Data //
      ausgrid_sa1 11103123335;
      ausgrid_annual_consumption 2654.4077778;
      ausgrid_annual_consumption_with_control_load 4655.47;
      ausgrid_simple_cell 25;
      ausgrid_elec_band_residential 1;
      ausgrid_elec_band_business 0;
      ausgrid_unit 0;
      ausgrid_income_band 1;
      ausgrid_gas_band 1;
      ausgrid_climate_zone 5;
      ausgrid_controlled_load 1;
      ausgrid_generation 0;
      };


object overhead_line {
      name FDR_12447_LV_NODE_024-FDR_12447_LV_SP_5334173;
      phases ABCN;
      from FDR_12447_LV_NODE_024;
      to FDR_12447_LV_SP_5334173;
      length 14.4 m;
      configuration conf_OHLine_2312;
      };



object meter {
      name FDR_12447_LV_SP_5334173;
      phases ABCN;
      nominal_voltage  240;
      };


object load {
      name LOAD_8186669;
      parent FDR_12447_LV_SP_5334173;
      phases CN;
      nominal_voltage  240;
      base_power_C Load_12447.result;
      power_fraction_C 1;
      current_fraction_C 0;
      impedance_fraction_C 0;
      power_pf_C L_pf_Head80784.output;
      current_pf_C 1;
      impedance_pf_C 1;
      
      // Customer Trial Appended Data //
      ausgrid_sa1 11103123335;
      ausgrid_annual_consumption 4257.5888889;
      ausgrid_annual_consumption_with_control_load 4257.5888889;
      ausgrid_simple_cell 37;
      ausgrid_elec_band_residential 1;
      ausgrid_elec_band_business 0;
      ausgrid_unit 1;
      ausgrid_income_band 1;
      ausgrid_gas_band 1;
      ausgrid_climate_zone 5;
      ausgrid_controlled_load 0;
      ausgrid_generation 0;
      };


object load {
      name LOAD_8186671;
      parent FDR_12447_LV_SP_5334173;
      phases AN;
      nominal_voltage  240;
      base_power_A Load_12447.result;
      power_fraction_A 1;
      current_fraction_A 0;
      impedance_fraction_A 0;
      power_pf_A L_pf_Head80784.output;
      current_pf_A 1;
      impedance_pf_A 1;
      
      // Customer Trial Appended Data //
      ausgrid_sa1 11103123335;
      ausgrid_annual_consumption 4403.1891892;
      ausgrid_annual_consumption_with_control_load 4403.1891892;
      ausgrid_simple_cell 37;
      ausgrid_elec_band_residential 1;
      ausgrid_elec_band_business 0;
      ausgrid_unit 1;
      ausgrid_income_band 1;
      ausgrid_gas_band 1;
      ausgrid_climate_zone 5;
      ausgrid_controlled_load 0;
      ausgrid_generation 0;
      };


object load {
      name LOAD_8186673;
      parent FDR_12447_LV_SP_5334173;
      phases BN;
      nominal_voltage  240;
      base_power_B Load_12447.result;
      power_fraction_B 1;
      current_fraction_B 0;
      impedance_fraction_B 0;
      power_pf_B L_pf_Head80784.output;
      current_pf_B 1;
      impedance_pf_B 1;
      
      // Customer Trial Appended Data //
      ausgrid_sa1 11103123335;
      ausgrid_annual_consumption 1474.6555556;
      ausgrid_annual_consumption_with_control_load 1474.6555556;
      ausgrid_simple_cell 37;
      ausgrid_elec_band_residential 1;
      ausgrid_elec_band_business 0;
      ausgrid_unit 1;
      ausgrid_income_band 1;
      ausgrid_gas_band 1;
      ausgrid_climate_zone 5;
      ausgrid_controlled_load 0;
      ausgrid_generation 0;
      };


object overhead_line {
      name FDR_12447_LV_NODE_024-FDR_12447_LV_SP_5213187;
      phases BN;
      from FDR_12447_LV_NODE_024;
      to FDR_12447_LV_SP_5213187;
      length 29.0 m;
      configuration conf_OHLine_2312;
      };



object meter {
      name FDR_12447_LV_SP_5213187;
      phases BN;
      nominal_voltage  240;
      };


object load {
      name LOAD_8186493;
      parent FDR_12447_LV_SP_5213187;
      phases BN;
      nominal_voltage  240;
      base_power_B Load_12447.result;
      power_fraction_B 1;
      current_fraction_B 0;
      impedance_fraction_B 0;
      power_pf_B L_pf_Head80784.output;
      current_pf_B 1;
      impedance_pf_B 1;
      
      // Customer Trial Appended Data //
      ausgrid_sa1 11103123335;
      ausgrid_annual_consumption 3994.8444444;
      ausgrid_annual_consumption_with_control_load 5108.8222222;
      ausgrid_simple_cell 25;
      ausgrid_elec_band_residential 1;
      ausgrid_elec_band_business 0;
      ausgrid_unit 0;
      ausgrid_income_band 1;
      ausgrid_gas_band 1;
      ausgrid_climate_zone 5;
      ausgrid_controlled_load 1;
      ausgrid_generation 0;
      };


object overhead_line {
      name FDR_12447_LV_NODE_024-FDR_12447_LV_SP_5334179;
      phases BN;
      from FDR_12447_LV_NODE_024;
      to FDR_12447_LV_SP_5334179;
      length 38.9 m;
      configuration conf_OHLine_57018;
      };



object meter {
      name FDR_12447_LV_SP_5334179;
      phases BN;
      nominal_voltage  240;
      };


object load {
      name LOAD_8186463;
      parent FDR_12447_LV_SP_5334179;
      phases BN;
      nominal_voltage  240;
      base_power_B Load_12447.result;
      power_fraction_B 1;
      current_fraction_B 0;
      impedance_fraction_B 0;
      power_pf_B L_pf_Head80784.output;
      current_pf_B 1;
      impedance_pf_B 1;
      
      // Customer Trial Appended Data //
      ausgrid_sa1 11103123335;
      ausgrid_annual_consumption 5750.6444444;
      ausgrid_annual_consumption_with_control_load 5750.6444444;
      ausgrid_simple_cell 26;
      ausgrid_elec_band_residential 2;
      ausgrid_elec_band_business 0;
      ausgrid_unit 0;
      ausgrid_income_band 1;
      ausgrid_gas_band 1;
      ausgrid_climate_zone 5;
      ausgrid_controlled_load 0;
      ausgrid_generation 0;
      };


object overhead_line {
      name FDR_12447_LV_NODE_024-FDR_12447_LV_SP_5334172;
      phases ABCN;
      from FDR_12447_LV_NODE_024;
      to FDR_12447_LV_SP_5334172;
      length 24.0 m;
      configuration conf_OHLine_2312;
      };



object meter {
      name FDR_12447_LV_SP_5334172;
      phases ABCN;
      nominal_voltage  240;
      };


object load {
      name LOAD_8186471;
      parent FDR_12447_LV_SP_5334172;
      phases CN;
      nominal_voltage  240;
      base_power_C Load_12447.result;
      power_fraction_C 1;
      current_fraction_C 0;
      impedance_fraction_C 0;
      power_pf_C L_pf_Head80784.output;
      current_pf_C 1;
      impedance_pf_C 1;
      
      // Customer Trial Appended Data //
      ausgrid_sa1 11103123335;
      ausgrid_annual_consumption 1382.3777778;
      ausgrid_annual_consumption_with_control_load 2519.3222222;
      ausgrid_simple_cell 25;
      ausgrid_elec_band_residential 1;
      ausgrid_elec_band_business 0;
      ausgrid_unit 0;
      ausgrid_income_band 1;
      ausgrid_gas_band 1;
      ausgrid_climate_zone 5;
      ausgrid_controlled_load 1;
      ausgrid_generation 0;
      };


object load {
      name LOAD_8186665;
      parent FDR_12447_LV_SP_5334172;
      phases AN;
      nominal_voltage  240;
      base_power_A Load_12447.result;
      power_fraction_A 1;
      current_fraction_A 0;
      impedance_fraction_A 0;
      power_pf_A L_pf_Head80784.output;
      current_pf_A 1;
      impedance_pf_A 1;
      
      // Customer Trial Appended Data //
      ausgrid_sa1 11103123335;
      ausgrid_annual_consumption 1746.4888889;
      ausgrid_annual_consumption_with_control_load 4489.6444444;
      ausgrid_simple_cell 37;
      ausgrid_elec_band_residential 1;
      ausgrid_elec_band_business 0;
      ausgrid_unit 1;
      ausgrid_income_band 1;
      ausgrid_gas_band 1;
      ausgrid_climate_zone 5;
      ausgrid_controlled_load 1;
      ausgrid_generation 0;
      };


object load {
      name LOAD_8186667;
      parent FDR_12447_LV_SP_5334172;
      phases BN;
      nominal_voltage  240;
      base_power_B Load_12447.result;
      power_fraction_B 1;
      current_fraction_B 0;
      impedance_fraction_B 0;
      power_pf_B L_pf_Head80784.output;
      current_pf_B 1;
      impedance_pf_B 1;
      
      // Customer Trial Appended Data //
      ausgrid_sa1 11103123335;
      ausgrid_annual_consumption 3168.9555556;
      ausgrid_annual_consumption_with_control_load 3168.9555556;
      ausgrid_simple_cell 37;
      ausgrid_elec_band_residential 1;
      ausgrid_elec_band_business 0;
      ausgrid_unit 1;
      ausgrid_income_band 1;
      ausgrid_gas_band 1;
      ausgrid_climate_zone 5;
      ausgrid_controlled_load 0;
      ausgrid_generation 0;
      };


object overhead_line {
      name FDR_12447_LV_NODE_023_1-FDR_12447_LV_SP_5334175;
      phases AN;
      from FDR_12447_LV_NODE_023_1;
      to FDR_12447_LV_SP_5334175;
      length 12.9 m;
      configuration conf_OHLine_600;
      };



object meter {
      name FDR_12447_LV_SP_5334175;
      phases AN;
      nominal_voltage  240;
      };


object load {
      name LOAD_8186503;
      parent FDR_12447_LV_SP_5334175;
      phases AN;
      nominal_voltage  240;
      base_power_A Load_12447.result;
      power_fraction_A 1;
      current_fraction_A 0;
      impedance_fraction_A 0;
      power_pf_A L_pf_Head80784.output;
      current_pf_A 1;
      impedance_pf_A 1;
      
      // Customer Trial Appended Data //
      ausgrid_sa1 11103123335;
      ausgrid_annual_consumption 3570.9222222;
      ausgrid_annual_consumption_with_control_load 4792.8777778;
      ausgrid_simple_cell 25;
      ausgrid_elec_band_residential 1;
      ausgrid_elec_band_business 0;
      ausgrid_unit 0;
      ausgrid_income_band 1;
      ausgrid_gas_band 1;
      ausgrid_climate_zone 5;
      ausgrid_controlled_load 1;
      ausgrid_generation 0;
      };


object overhead_line {
      name FDR_12447_LV_NODE_023_1-FDR_12447_LV_SP_5213186;
      phases AN;
      from FDR_12447_LV_NODE_023_1;
      to FDR_12447_LV_SP_5213186;
      length 27.5 m;
      configuration conf_OHLine_600;
      };



object meter {
      name FDR_12447_LV_SP_5213186;
      phases AN;
      nominal_voltage  240;
      };


object load {
      name LOAD_8186523;
      parent FDR_12447_LV_SP_5213186;
      phases AN;
      nominal_voltage  240;
      base_power_A Load_12447.result;
      power_fraction_A 1;
      current_fraction_A 0;
      impedance_fraction_A 0;
      power_pf_A L_pf_Head80784.output;
      current_pf_A 1;
      impedance_pf_A 1;
      
      // Customer Trial Appended Data //
      ausgrid_sa1 11103123335;
      ausgrid_annual_consumption 4353.0666667;
      ausgrid_annual_consumption_with_control_load 5430.1333333;
      ausgrid_simple_cell 25;
      ausgrid_elec_band_residential 1;
      ausgrid_elec_band_business 0;
      ausgrid_unit 0;
      ausgrid_income_band 1;
      ausgrid_gas_band 1;
      ausgrid_climate_zone 5;
      ausgrid_controlled_load 1;
      ausgrid_generation 0;
      };


object overhead_line {
      name FDR_12447_LV_NODE_023_1-FDR_12447_LV_SP_5334174;
      phases CN;
      from FDR_12447_LV_NODE_023_1;
      to FDR_12447_LV_SP_5334174;
      length 31.5 m;
      configuration conf_OHLine_600;
      };



object meter {
      name FDR_12447_LV_SP_5334174;
      phases CN;
      nominal_voltage  240;
      };


object load {
      name LOAD_8186489;
      parent FDR_12447_LV_SP_5334174;
      phases CN;
      nominal_voltage  240;
      base_power_C Load_12447.result;
      power_fraction_C 1;
      current_fraction_C 0;
      impedance_fraction_C 0;
      power_pf_C L_pf_Head80784.output;
      current_pf_C 1;
      impedance_pf_C 1;
      
      // Customer Trial Appended Data //
      ausgrid_sa1 11103123335;
      ausgrid_annual_consumption 1754.6111111;
      ausgrid_annual_consumption_with_control_load 1754.6111111;
      ausgrid_simple_cell 25;
      ausgrid_elec_band_residential 1;
      ausgrid_elec_band_business 0;
      ausgrid_unit 0;
      ausgrid_income_band 1;
      ausgrid_gas_band 1;
      ausgrid_climate_zone 5;
      ausgrid_controlled_load 0;
      ausgrid_generation 0;
      };


object overhead_line {
      name FDR_12447_LV_NODE_022_6-FDR_12447_LV_SP_5213182;
      phases CN;
      from FDR_12447_LV_NODE_022_6;
      to FDR_12447_LV_SP_5213182;
      length 20.0 m;
      configuration conf_OHLine_600;
      };



object meter {
      name FDR_12447_LV_SP_5213182;
      phases CN;
      nominal_voltage  240;
      };


object load {
      name LOAD_8186647;
      parent FDR_12447_LV_SP_5213182;
      phases CN;
      nominal_voltage  240;
      base_power_C Load_12447.result;
      power_fraction_C 1;
      current_fraction_C 0;
      impedance_fraction_C 0;
      power_pf_C L_pf_Head80784.output;
      current_pf_C 1;
      impedance_pf_C 1;
      
      // Customer Trial Appended Data //
      ausgrid_sa1 11103123334;
      ausgrid_annual_consumption 178.74444444;
      ausgrid_annual_consumption_with_control_load 178.74444444;
      ausgrid_simple_cell 25;
      ausgrid_elec_band_residential 1;
      ausgrid_elec_band_business 0;
      ausgrid_unit 0;
      ausgrid_income_band 1;
      ausgrid_gas_band 1;
      ausgrid_climate_zone 5;
      ausgrid_controlled_load 0;
      ausgrid_generation 0;
      };


object overhead_line {
      name FDR_12447_LV_NODE_022_6-FDR_12447_LV_SP_5213185;
      phases BN;
      from FDR_12447_LV_NODE_022_6;
      to FDR_12447_LV_SP_5213185;
      length 13.4 m;
      configuration conf_OHLine_600;
      };



object meter {
      name FDR_12447_LV_SP_5213185;
      phases BN;
      nominal_voltage  240;
      };


object load {
      name LOAD_8186563;
      parent FDR_12447_LV_SP_5213185;
      phases BN;
      nominal_voltage  240;
      base_power_B Load_12447.result;
      power_fraction_B 1;
      current_fraction_B 0;
      impedance_fraction_B 0;
      power_pf_B L_pf_Head80784.output;
      current_pf_B 1;
      impedance_pf_B 1;
      
      // Customer Trial Appended Data //
      ausgrid_sa1 11103123334;
      ausgrid_annual_consumption 5122.552968;
      ausgrid_annual_consumption_with_control_load 7959.7196347;
      ausgrid_simple_cell 25;
      ausgrid_elec_band_residential 1;
      ausgrid_elec_band_business 0;
      ausgrid_unit 0;
      ausgrid_income_band 1;
      ausgrid_gas_band 1;
      ausgrid_climate_zone 5;
      ausgrid_controlled_load 1;
      ausgrid_generation 0;
      };


object overhead_line {
      name FDR_12447_LV_NODE_022_6-FDR_12447_LV_SP_5334177;
      phases AN;
      from FDR_12447_LV_NODE_022_6;
      to FDR_12447_LV_SP_5334177;
      length 31.2 m;
      configuration conf_OHLine_600;
      };



object meter {
      name FDR_12447_LV_SP_5334177;
      phases AN;
      nominal_voltage  240;
      };


object load {
      name LOAD_8186533;
      parent FDR_12447_LV_SP_5334177;
      phases AN;
      nominal_voltage  240;
      base_power_A Load_12447.result;
      power_fraction_A 1;
      current_fraction_A 0;
      impedance_fraction_A 0;
      power_pf_A L_pf_Head80784.output;
      current_pf_A 1;
      impedance_pf_A 1;
      
      // Customer Trial Appended Data //
      ausgrid_sa1 11103123335;
      ausgrid_annual_consumption 6345.7653313;
      ausgrid_annual_consumption_with_control_load 6345.7653313;
      ausgrid_simple_cell 26;
      ausgrid_elec_band_residential 2;
      ausgrid_elec_band_business 0;
      ausgrid_unit 0;
      ausgrid_income_band 1;
      ausgrid_gas_band 1;
      ausgrid_climate_zone 5;
      ausgrid_controlled_load 0;
      ausgrid_generation 1;
      };


object inverter {
      name DG_8186533;
      parent FDR_12447_LV_SP_5334177;
      phases AN;
      generator_mode CONSTANT_PF;
      generator_status ONLINE;
      inverter_type PWM;
      power_factor 0.9;
      rated_power 10000;
      inverter_efficiency 0.95;
      };


object solar {
      name SOLAR_8186533;
      parent DG_8186533;
      phases AN;
      generator_status ONLINE;
      weather ElermoreClimate;
      panel_type SINGLE_CRYSTAL_SILICON;
      generator_mode CONSTANT_PF;
      area 9.638 m^2;
      tilt_angle 29;
      efficiency 0.14;
      orientation_azimuth 330;
      orientation  FIXED_AXIS;
      SOLAR_TILT_MODEL  SOLPOS;
      SOLAR_POWER_MODEL  DEFAULT;
      };


object load {
      name LOAD_8186645;
      parent FDR_12447_LV_SP_5334177;
      phases AN;
      nominal_voltage  240;
      base_power_A Load_12447.result;
      power_fraction_A 1;
      current_fraction_A 0;
      impedance_fraction_A 0;
      power_pf_A L_pf_Head80784.output;
      current_pf_A 1;
      impedance_pf_A 1;
      
      // Customer Trial Appended Data //
      ausgrid_sa1 11103123335;
      ausgrid_annual_consumption 7923.9609091;
      ausgrid_annual_consumption_with_control_load 7923.9609091;
      ausgrid_simple_cell 38;
      ausgrid_elec_band_residential 2;
      ausgrid_elec_band_business 0;
      ausgrid_unit 1;
      ausgrid_income_band 1;
      ausgrid_gas_band 1;
      ausgrid_climate_zone 5;
      ausgrid_controlled_load 0;
      ausgrid_generation 0;
      };


object overhead_line {
      name FDR_12447_LV_NODE_021_3-FDR_12447_LV_SP_5213183;
      phases AN;
      from FDR_12447_LV_NODE_021_3;
      to FDR_12447_LV_SP_5213183;
      length 27.4 m;
      configuration conf_OHLine_600;
      };



object meter {
      name FDR_12447_LV_SP_5213183;
      phases AN;
      nominal_voltage  240;
      };


object load {
      name LOAD_8186599;
      parent FDR_12447_LV_SP_5213183;
      phases AN;
      nominal_voltage  240;
      base_power_A Load_12447.result;
      power_fraction_A 1;
      current_fraction_A 0;
      impedance_fraction_A 0;
      power_pf_A L_pf_Head80784.output;
      current_pf_A 1;
      impedance_pf_A 1;
      
      // Customer Trial Appended Data //
      ausgrid_sa1 11103123335;
      ausgrid_annual_consumption 4246.1444444;
      ausgrid_annual_consumption_with_control_load 4246.1444444;
      ausgrid_simple_cell 25;
      ausgrid_elec_band_residential 1;
      ausgrid_elec_band_business 0;
      ausgrid_unit 0;
      ausgrid_income_band 1;
      ausgrid_gas_band 1;
      ausgrid_climate_zone 5;
      ausgrid_controlled_load 0;
      ausgrid_generation 0;
      };


object overhead_line {
      name FDR_12447_LV_NODE_020_1-FDR_12447_LV_NODE_021_2;
      phases ABCN;
      from FDR_12447_LV_NODE_020_1;
      to FDR_12447_LV_NODE_021_2;
      length 24.0 m;
      configuration conf_OHLine_51101;
      };



object meter {
      name FDR_12447_LV_NODE_021_2;
      phases ABCN;
      nominal_voltage  240;
      };


object overhead_line {
      name FDR_12447_LV_NODE_021_2-FDR_12447_LV_NODE_022_3;
      phases ABCN;
      from FDR_12447_LV_NODE_021_2;
      to FDR_12447_LV_NODE_022_3;
      length 45.9 m;
      configuration conf_OHLine_51101;
      };



object meter {
      name FDR_12447_LV_NODE_022_3;
      phases ABCN;
      nominal_voltage  240;
      };


object overhead_line {
      name FDR_12447_LV_NODE_022_3-FDR_12447_LV_SP_5213162;
      phases CN;
      from FDR_12447_LV_NODE_022_3;
      to FDR_12447_LV_SP_5213162;
      length 17.1 m;
      configuration conf_OHLine_600;
      };



object meter {
      name FDR_12447_LV_SP_5213162;
      phases CN;
      nominal_voltage  240;
      };


object load {
      name LOAD_8186579;
      parent FDR_12447_LV_SP_5213162;
      phases CN;
      nominal_voltage  240;
      base_power_C Load_12447.result;
      power_fraction_C 1;
      current_fraction_C 0;
      impedance_fraction_C 0;
      power_pf_C L_pf_Head80784.output;
      current_pf_C 1;
      impedance_pf_C 1;
      
      // Customer Trial Appended Data //
      ausgrid_sa1 11103123334;
      ausgrid_annual_consumption 3268.626;
      ausgrid_annual_consumption_with_control_load 3268.626;
      ausgrid_simple_cell 25;
      ausgrid_elec_band_residential 1;
      ausgrid_elec_band_business 0;
      ausgrid_unit 0;
      ausgrid_income_band 1;
      ausgrid_gas_band 1;
      ausgrid_climate_zone 5;
      ausgrid_controlled_load 0;
      ausgrid_generation 0;
      };


object overhead_line {
      name FDR_12447_LV_NODE_022_3-FDR_12447_LV_NODE_023_3;
      phases ABCN;
      from FDR_12447_LV_NODE_022_3;
      to FDR_12447_LV_NODE_023_3;
      length 37.6 m;
      configuration conf_OHLine_51101;
      };



object meter {
      name FDR_12447_LV_NODE_023_3;
      phases ABCN;
      nominal_voltage  240;
      };


object overhead_line {
      name FDR_12447_LV_NODE_023_3-FDR_12447_LV_SP_5334152;
      phases BN;
      from FDR_12447_LV_NODE_023_3;
      to FDR_12447_LV_SP_5334152;
      length 22.7 m;
      configuration conf_OHLine_600;
      };



object meter {
      name FDR_12447_LV_SP_5334152;
      phases BN;
      nominal_voltage  240;
      };


object load {
      name LOAD_8186605;
      parent FDR_12447_LV_SP_5334152;
      phases BN;
      nominal_voltage  240;
      base_power_B Load_12447.result;
      power_fraction_B 1;
      current_fraction_B 0;
      impedance_fraction_B 0;
      power_pf_B L_pf_Head80784.output;
      current_pf_B 1;
      impedance_pf_B 1;
      
      // Customer Trial Appended Data //
      ausgrid_sa1 11103123334;
      ausgrid_annual_consumption 6665.4458143;
      ausgrid_annual_consumption_with_control_load 6665.4458143;
      ausgrid_simple_cell 26;
      ausgrid_elec_band_residential 2;
      ausgrid_elec_band_business 0;
      ausgrid_unit 0;
      ausgrid_income_band 1;
      ausgrid_gas_band 1;
      ausgrid_climate_zone 5;
      ausgrid_controlled_load 0;
      ausgrid_generation 0;
      };


object overhead_line {
      name FDR_12447_LV_NODE_023_3-FDR_12447_LV_SP_5334154;
      phases BN;
      from FDR_12447_LV_NODE_023_3;
      to FDR_12447_LV_SP_5334154;
      length 24.2 m;
      configuration conf_OHLine_57018;
      };



object meter {
      name FDR_12447_LV_SP_5334154;
      phases BN;
      nominal_voltage  240;
      };


object load {
      name LOAD_8186631;
      parent FDR_12447_LV_SP_5334154;
      phases BN;
      nominal_voltage  240;
      base_power_B Load_12447.result;
      power_fraction_B 1;
      current_fraction_B 0;
      impedance_fraction_B 0;
      power_pf_B L_pf_Head80784.output;
      current_pf_B 1;
      impedance_pf_B 1;
      
      // Customer Trial Appended Data //
      ausgrid_sa1 11103123334;
      ausgrid_annual_consumption 5071.2413793;
      ausgrid_annual_consumption_with_control_load 5071.2413793;
      ausgrid_simple_cell 25;
      ausgrid_elec_band_residential 1;
      ausgrid_elec_band_business 0;
      ausgrid_unit 0;
      ausgrid_income_band 1;
      ausgrid_gas_band 1;
      ausgrid_climate_zone 5;
      ausgrid_controlled_load 0;
      ausgrid_generation 0;
      };


object load {
      name LOAD_8186635;
      parent FDR_12447_LV_SP_5334154;
      phases BN;
      nominal_voltage  240;
      base_power_B Load_12447.result;
      power_fraction_B 1;
      current_fraction_B 0;
      impedance_fraction_B 0;
      power_pf_B L_pf_Head80784.output;
      current_pf_B 1;
      impedance_pf_B 1;
      
      // Customer Trial Appended Data //
      ausgrid_sa1 11103123334;
      ausgrid_annual_consumption 3603.4766667;
      ausgrid_annual_consumption_with_control_load 7266.7814444;
      ausgrid_simple_cell 25;
      ausgrid_elec_band_residential 1;
      ausgrid_elec_band_business 0;
      ausgrid_unit 0;
      ausgrid_income_band 1;
      ausgrid_gas_band 1;
      ausgrid_climate_zone 5;
      ausgrid_controlled_load 1;
      ausgrid_generation 0;
      };


object overhead_line {
      name FDR_12447_LV_NODE_023_3-FDR_12447_LV_SP_5334153;
      phases BN;
      from FDR_12447_LV_NODE_023_3;
      to FDR_12447_LV_SP_5334153;
      length 14.2 m;
      configuration conf_OHLine_600;
      };



object meter {
      name FDR_12447_LV_SP_5334153;
      phases BN;
      nominal_voltage  240;
      };


object load {
      name LOAD_8186623;
      parent FDR_12447_LV_SP_5334153;
      phases BN;
      nominal_voltage  240;
      base_power_B Load_12447.result;
      power_fraction_B 1;
      current_fraction_B 0;
      impedance_fraction_B 0;
      power_pf_B L_pf_Head80784.output;
      current_pf_B 1;
      impedance_pf_B 1;
      
      // Customer Trial Appended Data //
      ausgrid_sa1 11103123334;
      ausgrid_annual_consumption 2617.5444444;
      ausgrid_annual_consumption_with_control_load 5885.0777778;
      ausgrid_simple_cell 25;
      ausgrid_elec_band_residential 1;
      ausgrid_elec_band_business 0;
      ausgrid_unit 0;
      ausgrid_income_band 1;
      ausgrid_gas_band 1;
      ausgrid_climate_zone 5;
      ausgrid_controlled_load 1;
      ausgrid_generation 0;
      };


object overhead_line {
      name FDR_12447_LV_NODE_023_3-FDR_12447_LV_SP_5213165;
      phases CN;
      from FDR_12447_LV_NODE_023_3;
      to FDR_12447_LV_SP_5213165;
      length 28.8 m;
      configuration conf_OHLine_600;
      };



object meter {
      name FDR_12447_LV_SP_5213165;
      phases CN;
      nominal_voltage  240;
      };


object load {
      name LOAD_8186611;
      parent FDR_12447_LV_SP_5213165;
      phases CN;
      nominal_voltage  240;
      base_power_C Load_12447.result;
      power_fraction_C 1;
      current_fraction_C 0;
      impedance_fraction_C 0;
      power_pf_C L_pf_Head80784.output;
      current_pf_C 1;
      impedance_pf_C 1;
      
      // Customer Trial Appended Data //
      ausgrid_sa1 11103123334;
      ausgrid_annual_consumption 2936.8446667;
      ausgrid_annual_consumption_with_control_load 4183.2267778;
      ausgrid_simple_cell 25;
      ausgrid_elec_band_residential 1;
      ausgrid_elec_band_business 0;
      ausgrid_unit 0;
      ausgrid_income_band 1;
      ausgrid_gas_band 1;
      ausgrid_climate_zone 5;
      ausgrid_controlled_load 1;
      ausgrid_generation 0;
      };


object overhead_line {
      name FDR_12447_LV_NODE_023_3-FDR_12447_LV_SP_5213163;
      phases CN;
      from FDR_12447_LV_NODE_023_3;
      to FDR_12447_LV_SP_5213163;
      length 14.1 m;
      configuration conf_OHLine_600;
      };



object meter {
      name FDR_12447_LV_SP_5213163;
      phases CN;
      nominal_voltage  240;
      };


object load {
      name LOAD_8186615;
      parent FDR_12447_LV_SP_5213163;
      phases CN;
      nominal_voltage  240;
      base_power_C Load_12447.result;
      power_fraction_C 1;
      current_fraction_C 0;
      impedance_fraction_C 0;
      power_pf_C L_pf_Head80784.output;
      current_pf_C 1;
      impedance_pf_C 1;
      
      // Customer Trial Appended Data //
      ausgrid_sa1 11103123334;
      ausgrid_annual_consumption 7017.1791476;
      ausgrid_annual_consumption_with_control_load 8687.112481;
      ausgrid_simple_cell 26;
      ausgrid_elec_band_residential 2;
      ausgrid_elec_band_business 0;
      ausgrid_unit 0;
      ausgrid_income_band 1;
      ausgrid_gas_band 1;
      ausgrid_climate_zone 5;
      ausgrid_controlled_load 1;
      ausgrid_generation 0;
      };


object overhead_line {
      name FDR_12447_LV_NODE_023_3-FDR_12447_LV_SP_5334155;
      phases CN;
      from FDR_12447_LV_NODE_023_3;
      to FDR_12447_LV_SP_5334155;
      length 30.3 m;
      configuration conf_OHLine_600;
      };



object meter {
      name FDR_12447_LV_SP_5334155;
      phases CN;
      nominal_voltage  240;
      };


object load {
      name LOAD_8186601;
      parent FDR_12447_LV_SP_5334155;
      phases CN;
      nominal_voltage  240;
      base_power_C Load_12447.result;
      power_fraction_C 1;
      current_fraction_C 0;
      impedance_fraction_C 0;
      power_pf_C L_pf_Head80784.output;
      current_pf_C 1;
      impedance_pf_C 1;
      
      // Customer Trial Appended Data //
      ausgrid_sa1 11103123334;
      ausgrid_annual_consumption 1160.8444444;
      ausgrid_annual_consumption_with_control_load 1160.8444444;
      ausgrid_simple_cell 25;
      ausgrid_elec_band_residential 1;
      ausgrid_elec_band_business 0;
      ausgrid_unit 0;
      ausgrid_income_band 1;
      ausgrid_gas_band 1;
      ausgrid_climate_zone 5;
      ausgrid_controlled_load 0;
      ausgrid_generation 0;
      };


object overhead_line {
      name FDR_12447_LV_NODE_022_3-FDR_12447_LV_SP_5334156;
      phases CN;
      from FDR_12447_LV_NODE_022_3;
      to FDR_12447_LV_SP_5334156;
      length 28.0 m;
      configuration conf_OHLine_600;
      };



object meter {
      name FDR_12447_LV_SP_5334156;
      phases CN;
      nominal_voltage  240;
      };


object load {
      name LOAD_8186583;
      parent FDR_12447_LV_SP_5334156;
      phases CN;
      nominal_voltage  240;
      base_power_C Load_12447.result;
      power_fraction_C 1;
      current_fraction_C 0;
      impedance_fraction_C 0;
      power_pf_C L_pf_Head80784.output;
      current_pf_C 1;
      impedance_pf_C 1;
      
      // Customer Trial Appended Data //
      ausgrid_sa1 11103123334;
      ausgrid_annual_consumption 7535.2358904;
      ausgrid_annual_consumption_with_control_load 7535.2358904;
      ausgrid_simple_cell 26;
      ausgrid_elec_band_residential 2;
      ausgrid_elec_band_business 0;
      ausgrid_unit 0;
      ausgrid_income_band 1;
      ausgrid_gas_band 1;
      ausgrid_climate_zone 5;
      ausgrid_controlled_load 0;
      ausgrid_generation 1;
      };


object inverter {
      name DG_8186583;
      parent FDR_12447_LV_SP_5334156;
      phases CN;
      generator_mode CONSTANT_PF;
      generator_status ONLINE;
      inverter_type PWM;
      power_factor 0.9;
      rated_power 10000;
      inverter_efficiency 0.95;
      };


object solar {
      name SOLAR_8186583;
      parent DG_8186583;
      phases CN;
      generator_status ONLINE;
      weather ElermoreClimate;
      panel_type SINGLE_CRYSTAL_SILICON;
      generator_mode CONSTANT_PF;
      area 9.15 m^2;
      tilt_angle 29;
      efficiency 0.14;
      orientation_azimuth 60;
      orientation  FIXED_AXIS;
      SOLAR_TILT_MODEL  SOLPOS;
      SOLAR_POWER_MODEL  DEFAULT;
      };


object overhead_line {
      name FDR_12447_LV_NODE_022_3-FDR_12447_LV_SP_5334151;
      phases BN;
      from FDR_12447_LV_NODE_022_3;
      to FDR_12447_LV_SP_5334151;
      length 14.1 m;
      configuration conf_OHLine_600;
      };



object meter {
      name FDR_12447_LV_SP_5334151;
      phases BN;
      nominal_voltage  240;
      };


object load {
      name LOAD_8186591;
      parent FDR_12447_LV_SP_5334151;
      phases BN;
      nominal_voltage  240;
      base_power_B Load_12447.result;
      power_fraction_B 1;
      current_fraction_B 0;
      impedance_fraction_B 0;
      power_pf_B L_pf_Head80784.output;
      current_pf_B 1;
      impedance_pf_B 1;
      
      // Customer Trial Appended Data //
      ausgrid_sa1 11103123334;
      ausgrid_annual_consumption 4827.2777778;
      ausgrid_annual_consumption_with_control_load 4827.2777778;
      ausgrid_simple_cell 25;
      ausgrid_elec_band_residential 1;
      ausgrid_elec_band_business 0;
      ausgrid_unit 0;
      ausgrid_income_band 1;
      ausgrid_gas_band 1;
      ausgrid_climate_zone 5;
      ausgrid_controlled_load 0;
      ausgrid_generation 0;
      };


object overhead_line {
      name FDR_12447_LV_NODE_022_3-FDR_12447_LV_SP_5334157;
      phases CN;
      from FDR_12447_LV_NODE_022_3;
      to FDR_12447_LV_SP_5334157;
      length 32.7 m;
      configuration conf_OHLine_600;
      };



object meter {
      name FDR_12447_LV_SP_5334157;
      phases CN;
      nominal_voltage  240;
      };


object load {
      name LOAD_8186571;
      parent FDR_12447_LV_SP_5334157;
      phases CN;
      nominal_voltage  240;
      base_power_C Load_12447.result;
      power_fraction_C 1;
      current_fraction_C 0;
      impedance_fraction_C 0;
      power_pf_C L_pf_Head80784.output;
      current_pf_C 1;
      impedance_pf_C 1;
      
      // Customer Trial Appended Data //
      ausgrid_sa1 11103123334;
      ausgrid_annual_consumption 3041.0222222;
      ausgrid_annual_consumption_with_control_load 3041.0222222;
      ausgrid_simple_cell 25;
      ausgrid_elec_band_residential 1;
      ausgrid_elec_band_business 0;
      ausgrid_unit 0;
      ausgrid_income_band 1;
      ausgrid_gas_band 1;
      ausgrid_climate_zone 5;
      ausgrid_controlled_load 0;
      ausgrid_generation 0;
      };


object overhead_line {
      name FDR_12447_LV_NODE_022_3-FDR_12447_LV_SP_11559548;
      phases BN;
      from FDR_12447_LV_NODE_022_3;
      to FDR_12447_LV_SP_11559548;
      length 29.3 m;
      configuration conf_OHLine_2312;
      };



object meter {
      name FDR_12447_LV_SP_11559548;
      phases BN;
      nominal_voltage  240;
      };


object load {
      name LOAD_8186643;
      parent FDR_12447_LV_SP_11559548;
      phases BN;
      nominal_voltage  240;
      base_power_B Load_12447.result;
      power_fraction_B 1;
      current_fraction_B 0;
      impedance_fraction_B 0;
      power_pf_B L_pf_Head80784.output;
      current_pf_B 1;
      impedance_pf_B 1;
      
      // Customer Trial Appended Data //
      ausgrid_sa1 11103123334;
      ausgrid_annual_consumption 3882.756;
      ausgrid_annual_consumption_with_control_load 3882.756;
      ausgrid_simple_cell 25;
      ausgrid_elec_band_residential 1;
      ausgrid_elec_band_business 0;
      ausgrid_unit 0;
      ausgrid_income_band 1;
      ausgrid_gas_band 1;
      ausgrid_climate_zone 5;
      ausgrid_controlled_load 0;
      ausgrid_generation 0;
      };


object overhead_line {
      name FDR_12447_LV_NODE_021_2-FDR_12447_LV_SP_5334158;
      phases BN;
      from FDR_12447_LV_NODE_021_2;
      to FDR_12447_LV_SP_5334158;
      length 28.6 m;
      configuration conf_OHLine_600;
      };



object meter {
      name FDR_12447_LV_SP_5334158;
      phases BN;
      nominal_voltage  240;
      };


object load {
      name LOAD_8186555;
      parent FDR_12447_LV_SP_5334158;
      phases BN;
      nominal_voltage  240;
      base_power_B Load_12447.result;
      power_fraction_B 1;
      current_fraction_B 0;
      impedance_fraction_B 0;
      power_pf_B L_pf_Head80784.output;
      current_pf_B 1;
      impedance_pf_B 1;
      
      // Customer Trial Appended Data //
      ausgrid_sa1 11103123334;
      ausgrid_annual_consumption 12350.040778;
      ausgrid_annual_consumption_with_control_load 12350.040778;
      ausgrid_simple_cell 27;
      ausgrid_elec_band_residential 3;
      ausgrid_elec_band_business 0;
      ausgrid_unit 0;
      ausgrid_income_band 1;
      ausgrid_gas_band 1;
      ausgrid_climate_zone 5;
      ausgrid_controlled_load 0;
      ausgrid_generation 1;
      };


object inverter {
      name DG_8186555;
      parent FDR_12447_LV_SP_5334158;
      phases BN;
      generator_mode CONSTANT_PF;
      generator_status ONLINE;
      inverter_type PWM;
      power_factor 0.9;
      rated_power 10000;
      inverter_efficiency 0.95;
      };


object solar {
      name SOLAR_8186555;
      parent DG_8186555;
      phases BN;
      generator_status ONLINE;
      weather ElermoreClimate;
      panel_type SINGLE_CRYSTAL_SILICON;
      generator_mode CONSTANT_PF;
      area 16.226 m^2;
      tilt_angle 15;
      efficiency 0.14;
      orientation_azimuth 10;
      orientation  FIXED_AXIS;
      SOLAR_TILT_MODEL  SOLPOS;
      SOLAR_POWER_MODEL  DEFAULT;
      };


object overhead_line {
      name FDR_12447_LV_NODE_021_2-FDR_12447_LV_SP_5213487;
      phases AN;
      from FDR_12447_LV_NODE_021_2;
      to FDR_12447_LV_SP_5213487;
      length 15.9 m;
      configuration conf_OHLine_600;
      };



object meter {
      name FDR_12447_LV_SP_5213487;
      phases AN;
      nominal_voltage  240;
      };


object load {
      name LOAD_8186619;
      parent FDR_12447_LV_SP_5213487;
      phases AN;
      nominal_voltage  240;
      base_power_A Load_12447.result;
      power_fraction_A 1;
      current_fraction_A 0;
      impedance_fraction_A 0;
      power_pf_A L_pf_Head80784.output;
      current_pf_A 1;
      impedance_pf_A 1;
      
      // Customer Trial Appended Data //
      ausgrid_sa1 11103123335;
      ausgrid_annual_consumption 9089.4030718;
      ausgrid_annual_consumption_with_control_load 11546.160648;
      ausgrid_simple_cell 27;
      ausgrid_elec_band_residential 3;
      ausgrid_elec_band_business 0;
      ausgrid_unit 0;
      ausgrid_income_band 1;
      ausgrid_gas_band 1;
      ausgrid_climate_zone 5;
      ausgrid_controlled_load 1;
      ausgrid_generation 0;
      };


object overhead_line {
      name FDR_12447_LV_NODE_021_2-FDR_12447_LV_SP_5305198;
      phases CN;
      from FDR_12447_LV_NODE_021_2;
      to FDR_12447_LV_SP_5305198;
      length 33.5 m;
      configuration conf_OHLine_600;
      };



object meter {
      name FDR_12447_LV_SP_5305198;
      phases CN;
      nominal_voltage  240;
      };


object load {
      name LOAD_8186545;
      parent FDR_12447_LV_SP_5305198;
      phases CN;
      nominal_voltage  240;
      base_power_C Load_12447.result;
      power_fraction_C 1;
      current_fraction_C 0;
      impedance_fraction_C 0;
      power_pf_C L_pf_Head80784.output;
      current_pf_C 1;
      impedance_pf_C 1;
      
      // Customer Trial Appended Data //
      ausgrid_sa1 11103123334;
      ausgrid_annual_consumption 2786.5111111;
      ausgrid_annual_consumption_with_control_load 2786.5111111;
      ausgrid_simple_cell 25;
      ausgrid_elec_band_residential 1;
      ausgrid_elec_band_business 0;
      ausgrid_unit 0;
      ausgrid_income_band 1;
      ausgrid_gas_band 1;
      ausgrid_climate_zone 5;
      ausgrid_controlled_load 0;
      ausgrid_generation 0;
      };


object overhead_line {
      name FDR_12447_LV_NODE_021_2-FDR_12447_LV_NODE_022_2;
      phases ABCN;
      from FDR_12447_LV_NODE_021_2;
      to FDR_12447_LV_NODE_022_2;
      length 46.9 m;
      configuration conf_OHLine_51101;
      };



object meter {
      name FDR_12447_LV_NODE_022_2;
      phases ABCN;
      nominal_voltage  240;
      };


object overhead_line {
      name FDR_12447_LV_NODE_022_2-FDR_12447_LV_SP_5335460;
      phases BN;
      from FDR_12447_LV_NODE_022_2;
      to FDR_12447_LV_SP_5335460;
      length 30.5 m;
      configuration conf_OHLine_600;
      };



object meter {
      name FDR_12447_LV_SP_5335460;
      phases BN;
      nominal_voltage  240;
      };


object load {
      name LOAD_8186607;
      parent FDR_12447_LV_SP_5335460;
      phases BN;
      nominal_voltage  240;
      base_power_B Load_12447.result;
      power_fraction_B 1;
      current_fraction_B 0;
      impedance_fraction_B 0;
      power_pf_B L_pf_Head80784.output;
      current_pf_B 1;
      impedance_pf_B 1;
      
      // Customer Trial Appended Data //
      ausgrid_sa1 11103123334;
      ausgrid_annual_consumption 4943.9538462;
      ausgrid_annual_consumption_with_control_load 4943.9538462;
      ausgrid_simple_cell 25;
      ausgrid_elec_band_residential 1;
      ausgrid_elec_band_business 0;
      ausgrid_unit 0;
      ausgrid_income_band 1;
      ausgrid_gas_band 1;
      ausgrid_climate_zone 5;
      ausgrid_controlled_load 0;
      ausgrid_generation 0;
      };


object overhead_line {
      name FDR_12447_LV_NODE_022_2-FDR_12447_LV_NODE_023_5;
      phases ABCN;
      from FDR_12447_LV_NODE_022_2;
      to FDR_12447_LV_NODE_023_5;
      length 40.0 m;
      configuration conf_OHLine_51101;
      };



object meter {
      name FDR_12447_LV_NODE_023_5;
      phases ABCN;
      nominal_voltage  240;
      };


object overhead_line {
      name FDR_12447_LV_NODE_023_5-FDR_12447_LV_NODE_024_4;
      phases ABCN;
      from FDR_12447_LV_NODE_023_5;
      to FDR_12447_LV_NODE_024_4;
      length 32.9 m;
      configuration conf_OHLine_51060;
      };



object meter {
      name FDR_12447_LV_NODE_024_4;
      phases ABCN;
      nominal_voltage  240;
      };


object overhead_line {
      name FDR_12447_LV_NODE_024_4-FDR_61210R_LV_SW_025_T1;
      phases ABCN;
      from FDR_12447_LV_NODE_024_4;
      to FDR_61210R_LV_SW_025_T1;
      length 5.5 m;
      configuration conf_OHLine_51060;
      };



object meter {
      name FDR_61210R_LV_SW_025_T1;
      phases ABCN;
      nominal_voltage  240;
      };


object overhead_line {
      name FDR_12447_LV_NODE_024_4-FDR_12447_LV_SP_5213484;
      phases CN;
      from FDR_12447_LV_NODE_024_4;
      to FDR_12447_LV_SP_5213484;
      length 20.3 m;
      configuration conf_OHLine_600;
      };



object meter {
      name FDR_12447_LV_SP_5213484;
      phases CN;
      nominal_voltage  240;
      };


object load {
      name LOAD_8186557;
      parent FDR_12447_LV_SP_5213484;
      phases CN;
      nominal_voltage  240;
...